
**** 07/04/24 15:41:34 ***** PSpice 16.6.0 (October 2012) ***** ID# 0 ********

 ** Profile: "SCHEMATIC2-CC_param_inv"  [ C:\Users\Septimiu\Documents\Didactic\alte\2023_2024\tcad\SenzorCO_Orcad\proiecttcad-pspicef


 ****     CIRCUIT DESCRIPTION


******************************************************************************




** Creating circuit file "CC_param_inv.cir" 
** WARNING: THIS AUTOMATICALLY GENERATED FILE MAY BE OVERWRITTEN BY SUBSEQUENT SIMULATIONS

*Libraries: 
* Profile Libraries :
* Local Libraries :
* From [PSPICE NETLIST] section of C:\Users\Septimiu\AppData\Roaming\SPB_Data\cdssetup\OrCAD_PSpice/16.6.0/PSpice.ini file:
.lib "nom.lib" 

*Analysis directives: 
.DC LIN PARAM Rp 90k 45k -0.1k 
+ LIN TEMP -40 80 20 
.OPTIONS ADVCONV
.PROBE64 V(alias(*)) I(alias(*)) W(alias(*)) D(alias(*)) NOISE(alias(*)) 
.INC "..\SCHEMATIC2.net" 



**** INCLUDING SCHEMATIC2.net ****
* source PROIECTTCAD
V_V1         VCC_ARROW 0 18Vdc
R_R1         N00676 VCC_ARROW R_R1 1k TC=0,0 
.model        R_R1 RES R=1 DEV=0.5% TC1=0 TC2=0
Q_Q1         SENZOR N00682 N00670 Q2N2907
R_R2         N00670 VCC_ARROW R_R2 1k TC=0,0 
.model        R_R2 RES R=1 DEV=0.5% TC1=0 TC2=0
R_R3         0 N00682 R_R3 107k TC=0,0 
.model        R_R3 RES R=1 DEV=0.5% TC1=0 TC2=0
R_Rs         0 SENZOR R_Rs {Rp} TC=0,0 
.model        R_Rs RES R=1 DEV=0.5% TC1=0 TC2=0
Q_Q2         N00682 N00682 N00676 Q2N2907
V_V2         0 VCC_WAVE 18Vdc
X_U1A         SENZOR N01633 VCC_ARROW VCC_WAVE CO TL082
X_U1B         N02472 N02359 VCC_ARROW VCC_WAVE N01932 TL082
R_R4         N01633 VCC_ARROW R_R4 15.8k TC=0,0 
.model        R_R4 RES R=1 DEV=0.5% TC1=0 TC2=0
R_R5         0 N01633 R_R5 37.8k TC=0,0 
.model        R_R5 RES R=1 DEV=0.5% TC1=0 TC2=0
R_R6         CO N01633 R_R6 10.5k TC=0,0 
.model        R_R6 RES R=1 DEV=0.5% TC1=0 TC2=0
R_R7         VCC_ARROW N02359 R_R7 6.04k TC=0,0 
.model        R_R7 RES R=1 DEV=0.5% TC1=0 TC2=0
R_R8         N02359 0 R_R8 4.37k TC=0,0 
.model        R_R8 RES R=1 DEV=0.5% TC1=0 TC2=0
R_R9         N01932 N02491 R_R9 150 TC=0,0 
.model        R_R9 RES R=1 DEV=0.5% TC1=0 TC2=0
R_R10         CO N02472 R_R10 3.4k TC=0,0 
.model        R_R10 RES R=1 DEV=0.5% TC1=0 TC2=0
R_R11         N02472 N02491 R_R11 10k TC=0,0 
.model        R_R11 RES R=1 DEV=0.5% TC1=0 TC2=0
D_D1         N02987 N02491 D02CZ16 
D_D2         N02987 0 D02CZ16 
R_R12         N02943 N02491  30k TC=0,0 
R_R13         0 N02943  3k TC=0,0 
R_R14         N03002 VCC_ARROW  1.6k TC=0,0 
R_R15         IES VCC_ARROW  500 TC=0,0 
D_D3         N03002 IES LS_5436-TYP 
D_D4         IES VCC_ARROW D1N4001 
Q_Q3         IES N02943 N02939 BC547A 
Q_Q4         IES N02939 0 BD241A
.PARAM  rp=50k

**** RESUMING CC_param_inv.cir ****
.END

**** 07/04/24 15:41:34 ***** PSpice 16.6.0 (October 2012) ***** ID# 0 ********

 ** Profile: "SCHEMATIC2-CC_param_inv"  [ C:\Users\Septimiu\Documents\Didactic\alte\2023_2024\tcad\SenzorCO_Orcad\proiecttcad-pspicef


 ****     Diode MODEL PARAMETERS


******************************************************************************




               D02CZ16         LS_5436-TYP     D1N4001         X_U1A.dx        
          IS    9.149000E-12  980.130000E-24   14.110000E-09  800.000000E-18 
           N    1.461           1.6749          1.984                        
         ISR   76.610000E-09                                                 
         IKF   28.61            7.140200E-03   94.81                         
          BV   16.15                           75                            
         IBV    1.95                           10.000000E-06                 
          RS     .347           1.6217           .03389                      
          TT    5.000000E-09                    5.700000E-06                 
         CJO  402.800000E-12                   25.890000E-12                 
          VJ    5                                .3245                       
           M    1.533                            .44                         


               X_U1A.dy        X_U1B.dx        X_U1B.dy        
          IS  800.000000E-18  800.000000E-18  800.000000E-18 
          RS    1.000000E-03                    1.000000E-03 
         CJO   10.000000E-12                   10.000000E-12 


**** 07/04/24 15:41:34 ***** PSpice 16.6.0 (October 2012) ***** ID# 0 ********

 ** Profile: "SCHEMATIC2-CC_param_inv"  [ C:\Users\Septimiu\Documents\Didactic\alte\2023_2024\tcad\SenzorCO_Orcad\proiecttcad-pspicef


 ****     BJT MODEL PARAMETERS


******************************************************************************




               Q2N2907         BC547A          BD241A          
               PNP             NPN             NPN             
       LEVEL    1               1               1            
          IS  650.600000E-18    7.049000E-15    2.447000E-12 
          BF  231.7           253             208.2          
          NF    1               1               1            
         VAF  115.7           127.9           100            
         IKF    1.079            .07705          .9743       
         ISE   54.810000E-15   96.260000E-15   70.690000E-12 
          NE    1.829           1.556           1.565        
          BR    3.563           1              12.59         
          NR    1               1               1            
         IKR                    3.321           3.86         
         ISC                  130.800000E-15   11.680000E-09 
          NC                    1.602           1.835        
          NK                     .5305           .6134       
         ISS    0               0               0            
          RB   10                                .1          
          RE    0               0               0            
          RC     .715            .8766           .4685       
         CJE   19.820000E-12   11.500000E-12  188.500000E-12 
         VJE     .75             .5              .75         
         MJE     .3357           .6715           .4878       
         CJC   14.760000E-12    5.250000E-12  142.000000E-12 
         VJC     .75             .5697           .75         
         MJC     .5383           .3147           .4353       
        XCJC    1               1               1            
         CJS    0               0               0            
         VJS     .75             .75             .75         
          TF  603.700000E-12  409.500000E-12   19.850000E-09 
         XTF    1.7            40.12            5.945        
         VTF    5              10              10            
         ITF     .65            1.994         164.1          
          TR  111.300000E-09   10.000000E-09  194.200000E-09 
         XTB    1.5             1.5             1.5          
          KF    0               0               0            
          AF    1               1               1            
          CN    2.2             2.42            2.42         
           D     .52             .87             .87         


**** 07/04/24 15:41:34 ***** PSpice 16.6.0 (October 2012) ***** ID# 0 ********

 ** Profile: "SCHEMATIC2-CC_param_inv"  [ C:\Users\Septimiu\Documents\Didactic\alte\2023_2024\tcad\SenzorCO_Orcad\proiecttcad-pspicef


 ****     Junction FET MODEL PARAMETERS


******************************************************************************




               X_U1A.jx1       X_U1A.jx2       X_U1B.jx1       X_U1B.jx2       
               NJF             NJF             NJF             NJF             
         VTO   -1              -1              -1              -1            
        BETA  222.070000E-06  222.070000E-06  222.070000E-06  222.070000E-06 
          IS  100.000000E-12  100.000000E-12  100.000000E-12  100.000000E-12 


**** 07/04/24 15:41:34 ***** PSpice 16.6.0 (October 2012) ***** ID# 0 ********

 ** Profile: "SCHEMATIC2-CC_param_inv"  [ C:\Users\Septimiu\Documents\Didactic\alte\2023_2024\tcad\SenzorCO_Orcad\proiecttcad-pspicef


 ****     Resistor MODEL PARAMETERS


******************************************************************************




               R_R1            R_R2            R_R3            R_Rs            
           R    1               1               1               1            


               R_R4            R_R5            R_R6            R_R7            
           R    1               1               1               1            


               R_R8            R_R9            R_R10           R_R11           
           R    1               1               1               1            



          JOB CONCLUDED

**** 07/04/24 15:41:34 ***** PSpice 16.6.0 (October 2012) ***** ID# 0 ********

 ** Profile: "SCHEMATIC2-CC_param_inv"  [ C:\Users\Septimiu\Documents\Didactic\alte\2023_2024\tcad\SenzorCO_Orcad\proiecttcad-pspicef


 ****     JOB STATISTICS SUMMARY


******************************************************************************



  Total job time (using Solver 1)   =        3.02
